[General]
network = VehicleNetwork
record-eventlog = true
sim-time-limit = 500s
